Version 4
SHEET 1 880 680
WIRE 208 -112 208 -176
WIRE 208 -112 48 -112
WIRE 144 -16 48 -16
WIRE 208 -16 144 -16
WIRE 144 16 144 -16
WIRE 144 48 144 16
FLAG 208 -176 V+
FLAG 144 240 0
FLAG 0 -32 A
FLAG 96 128 A
FLAG 160 -32 B
FLAG 96 224 B
FLAG -32 80 B
FLAG -128 80 A
FLAG 384 -64 V+
FLAG 384 16 0
FLAG -128 160 0
FLAG -32 160 0
FLAG 144 16 C
IOPIN 144 16 Out
SYMBOL nmos 96 48 R0
SYMATTR InstName M1
SYMBOL nmos 96 144 R0
SYMATTR InstName M2
SYMBOL pmos 0 -112 R0
SYMATTR InstName M3
SYMBOL pmos 160 -112 R0
SYMATTR InstName M4
SYMBOL voltage 384 -80 R0
WINDOW 123 0 0 Left 0
WINDOW 39 0 0 Left 0
SYMATTR InstName V1
SYMATTR Value 5
SYMBOL voltage -128 64 R0
WINDOW 0 -22 -32 Left 2
WINDOW 123 0 0 Left 0
WINDOW 39 0 0 Left 0
SYMATTR InstName V2
SYMATTR Value 5
SYMBOL voltage -32 64 R0
WINDOW 123 0 0 Left 0
WINDOW 39 0 0 Left 0
SYMATTR InstName V3
SYMATTR Value 5
TEXT -162 286 Left 2 !.tran 100m
